Version 4
SHEET 1 880 680
WIRE 96 -128 32 -128
WIRE 240 -128 176 -128
WIRE 608 -80 560 -80
WIRE 736 -80 688 -80
WIRE -432 -16 -432 -80
WIRE -80 0 -80 -32
WIRE 32 0 32 -128
WIRE 32 0 -80 0
WIRE 112 0 32 0
WIRE 240 16 240 -128
WIRE 240 16 176 16
WIRE 304 16 240 16
WIRE -80 32 -80 0
WIRE 112 32 32 32
WIRE 560 32 560 -80
WIRE 592 32 560 32
WIRE 736 32 736 -80
WIRE 736 32 704 32
WIRE 560 80 560 32
WIRE -432 112 -432 64
WIRE -80 160 -80 112
WIRE 32 160 32 32
WIRE 32 160 0 160
WIRE 96 160 32 160
WIRE 240 160 240 16
WIRE 240 160 176 160
WIRE 0 192 0 160
WIRE 560 192 560 144
WIRE 0 304 0 256
FLAG -80 160 0
FLAG 0 304 0
FLAG -432 112 0
FLAG -432 -80 Vcc
IOPIN -432 -80 Out
FLAG 144 48 Vcc
IOPIN 144 48 Out
FLAG 144 -16 0
FLAG -80 -112 Vcc
IOPIN -80 -112 Out
FLAG 304 16 Out
IOPIN 304 16 Out
FLAG 560 192 0
SYMBOL res 192 -144 R90
WINDOW 0 0 56 VBottom 2
WINDOW 3 32 56 VTop 2
SYMATTR InstName R1
SYMATTR Value 20k
SYMBOL res 192 144 R90
WINDOW 0 0 56 VBottom 2
WINDOW 3 32 56 VTop 2
SYMATTR InstName R2
SYMATTR Value 6815
SYMBOL res -64 -16 R180
WINDOW 0 36 76 Left 2
WINDOW 3 36 40 Left 2
SYMATTR InstName R3
SYMATTR Value 10k
SYMBOL res -64 128 R180
WINDOW 0 36 76 Left 2
WINDOW 3 36 40 Left 2
SYMATTR InstName R4
SYMATTR Value 10k
SYMBOL cap -16 192 R0
SYMATTR InstName C1
SYMATTR Value 105p
SYMBOL voltage -432 -32 R0
WINDOW 123 0 0 Left 0
WINDOW 39 0 0 Left 0
SYMATTR InstName V1
SYMATTR Value 5
SYMBOL OpAmps\\AD823 144 80 M180
SYMATTR InstName U1
SYMBOL CD4000\\CD4000\\CD40106B 640 -16 R0
SYMATTR InstName U2
SYMBOL res 704 -96 R90
WINDOW 0 0 56 VBottom 2
WINDOW 3 32 56 VTop 2
SYMATTR InstName R5
SYMATTR Value 100k
SYMBOL cap 544 80 R0
SYMATTR InstName C2
SYMATTR Value 8.2n
TEXT -496 328 Left 2 !.tran 10m uic
TEXT 672 120 Left 2 !.inc CD4000.lib
